  12
  -374.30398430315688
 H     0.00000000     2.17151791     1.22873969
 H     0.00000000    -2.17151791     1.22873969
 H     0.00000000     2.17151791    -1.22873969
 H     0.00000000    -2.17151791    -1.22873969
 C     0.00000000     0.00000000     1.45181341
 C     0.00000000     0.00000000    -1.45181341
 C     0.00000000     1.23195873     0.68956543
 C     0.00000000    -1.23195873     0.68956543
 C     0.00000000     1.23195873    -0.68956543
 C     0.00000000    -1.23195873    -0.68956543
 O     0.00000000     0.00000000     2.81694652
 O     0.00000000     0.00000000    -2.81694652
