  14
  -248.88640597436296     
 N    -1.95629957     2.16514412     0.92716472
 C    -0.79596221     1.49781089     0.87952950
 C    -0.56524998     0.40794221     0.06018756
 C     0.72037196    -0.28072861     0.03808793
 C     1.01589214    -1.38223866     0.84679829
 C     2.24483330    -2.01138992     0.76866930
 H    -2.08105731     2.95923315     1.54481231
 H    -2.74645549     1.90712682     0.34417121
 H    -0.01893757     1.86605082     1.54374734
 H    -1.34964172     0.05325532    -0.61199399
 H     1.47999797     0.05689340    -0.67154536
 H     0.26617785    -1.74309465     1.54531937
 H     3.00765819    -1.67040166     0.07659906
 H     2.48455434    -2.86294539     1.39398863
