  14
  -248.97562488675138     
 N    -2.94913249     0.09617072     0.00000000
 C    -1.73341057    -0.40278164     0.00000000
 C    -0.55889270     0.37481697     0.00000000
 C     0.66671107    -0.25188373     0.00000000
 C     1.92297999     0.43548091     0.00000000
 C     3.09365062    -0.25136238     0.00000000
 H    -3.77053590    -0.50320397     0.00000000
 H    -3.11553275     1.10082513     0.00000000
 H    -1.66885279    -1.48801372     0.00000000
 H    -0.63188349     1.45973060     0.00000000
 H     0.69724792    -1.34148101     0.00000000
 H     1.91890970     1.52213876     0.00000000
 H     3.11783846    -1.33664017     0.00000000
 H     4.04980146     0.25822105     0.00000000
