  14
  -248.83175565024274     
 N    -2.98211096     0.20612779     0.00000000
 C    -1.81214612    -0.47077068     0.00000000
 C    -0.56069546     0.21981645     0.00000000
 C     0.70023490    -0.40898881     0.00000000
 C     1.89737897     0.38271354     0.00000000
 C     3.17943036    -0.16185513     0.00000000
 H    -3.87361359    -0.28237697     0.00000000
 H    -3.01791836     1.22286960     0.00000000
 H    -1.87043118    -1.55470613     0.00000000
 H    -0.58861459     1.30935054     0.00000000
 H     0.77769256    -1.49409084     0.00000000
 H     1.79551878     1.46681851     0.00000000
 H     3.33559290    -1.23793401     0.00000000
 H     4.05858032     0.47504366     0.00000000
