20
3-methyl pentane C6H14 mp2(full)/6-31g* = -236.1866009
  C        0.00000        0.00000        0.00000
  C       -0.87979        1.25379       -0.00000
  C       -0.87979       -1.25379       -0.00000
  C       -0.12116        2.56713        0.16812
  C       -0.12116       -2.56713        0.16812
  C        0.98135        0.00000       -1.16955
  H        0.58019        0.00000        0.93591
  H       -1.61285        1.16258        0.81128
  H       -1.61285       -1.16258        0.81128
  H       -1.45747        1.27795       -0.93392
  H       -1.45747       -1.27795       -0.93392
  H       -0.81523        3.40784        0.25672
  H       -0.81523       -3.40784        0.25672
  H        0.49502        2.54617        1.07253
  H        0.49502       -2.54617        1.07253
  H        0.53500        2.77207       -0.68078
  H        0.53500       -2.77207       -0.68078
  H        0.43577       -0.00000       -2.12031
  H        1.62934        0.87963       -1.15340
  H        1.62934       -0.87963       -1.15340
