15
 neutralIP C6H5-CH3 (Toluene. Cs)  mp2(full)/6-31G* (Plane of ring is perpendicular to symmetry plane). MP2(full)/6-31G* Geom. Optimized Energy = -270.662873. (HF = -269.738956).
C           -.009688     .912760     .000000
C           -.006861     .195983    1.201550
C           -.006861     .195983   -1.201550
C           -.006861   -1.198328    1.204953
C           -.006861   -1.198328   -1.204953
C           -.004765   -1.900643     .000000
C            .029546    2.417694     .000000
H           1.060813    2.786438     .000000
H           -.467164    2.824939    -.884877
H           -.467164    2.824939     .884877
H           -.009740   -1.736697    2.149654
H           -.009740   -1.736697   -2.149654
H           -.007487   -2.987617     .000000
H           -.012712     .736985    2.146302
H           -.012712     .736985   -2.146302

