23
n-heptane c7h16 mp2(full)/6-31g* = -275.3567021
  C        0.00000        0.00000        0.00000
  C       -0.83912        1.27380       -0.00000
  C       -0.83912       -1.27380       -0.00000
  C       -0.00148        2.54850        0.00000
  C       -0.00148       -2.54850       -0.00000
  C       -0.85152        3.81434        0.00000
  C       -0.85152       -3.81434       -0.00000
  H        0.65897        0.00000        0.87851
  H        0.65897        0.00000       -0.87851
  H       -1.49830        1.27421        0.87843
  H       -1.49830        1.27421       -0.87843
  H       -1.49830       -1.27421       -0.87843
  H       -1.49830       -1.27421        0.87843
  H        0.65653        2.54649       -0.87766
  H        0.65653        2.54649        0.87766
  H        0.65653       -2.54649        0.87766
  H        0.65653       -2.54649       -0.87766
  H       -1.49568        3.85081        0.88365
  H       -1.49568        3.85081       -0.88365
  H       -1.49568       -3.85081       -0.88365
  H       -1.49568       -3.85081        0.88365
  H       -0.23068        4.71474        0.00000
  H       -0.23068       -4.71474       -0.00000
