16
cyclooctatetraene C8H8 mp2(full)/6-31g* = -308.566092
  C        0.00000        1.53373       -0.67301
  C       -0.00000        1.53373        0.67301
  C        0.00000       -1.53373        0.67301
  C       -0.00000       -1.53373       -0.67301
  C       -0.82075        0.67301        1.53422
  C       -0.82075       -0.67301        1.53422
  C       -0.82075       -0.67301       -1.53422
  C       -0.82075        0.67301       -1.53422
  H        0.60680        2.28218       -1.18429
  H        0.60680        2.28218        1.18429
  H        0.60680       -2.28218        1.18429
  H        0.60680       -2.28218       -1.18429
  H       -1.42665        1.18445        2.28327
  H       -1.42665       -1.18445        2.28327
  H       -1.42665       -1.18445       -2.28327
  H       -1.42665        1.18445       -2.28327
