18
azulene C10H8 mp2(full)/6-31g* = -384.6068316
  C        0.00000        0.00000        0.00000
  C        1.40286        0.00000        0.00000
  C       -0.48108        1.31779        0.00000
  C        1.84677        1.33072        0.00000
  C        0.61659        2.19119        0.00000
  C        3.17202        1.74915       -0.00000
  C        0.55567        3.57959        0.00000
  C        3.67801        3.05150       -0.00000
  C        1.60598        4.50107        0.00000
  C        2.98272        4.26332       -0.00000
  H       -0.62280       -0.89027       -0.00000
  H        2.04586       -0.87405       -0.00000
  H       -1.52264        1.62206        0.00000
  H        3.91550        0.94962        0.00000
  H       -0.45003        4.00451       -0.00000
  H        4.76363        3.13334       -0.00000
  H        1.31074        5.54899        0.00000
  H        3.60745        5.15626       -0.00000
