11
CH3-C(=O)-OCH3. C-C-O-C, Z-Methyl Acetate. MP2(full)/6-31G* Geom. Optimized Energy = -267.593234. (HF = -266.833188).
  C        0.00000        0.00000        0.00000
  O        1.21817        0.00000        0.00000
  O       -0.74740        1.13169        0.00000
  C       -0.88440       -1.21492       -0.00000
  C        0.02721        2.34511        0.00000
  H       -0.26456       -2.11015       -0.00000
  H       -1.52875       -1.20440        0.88176
  H       -1.52875       -1.20440       -0.88176
  H       -0.70521        3.14967       -0.00000
  H        0.65771        2.39487        0.88869
  H        0.65771        2.39487       -0.88869
