15
t-butanol. (CH3)3C-OH. Cs symm. MP2(full)/6-31G* Geom. Optimized Energy = -232.884749 (HF = -232.151810).
  C        0.00000        0.00000        0.00000
  O        1.43795        0.00000        0.00000
  C       -0.37978        1.47013        0.00000
  C       -0.50967       -0.69582       -1.25643
  C       -0.50967       -0.69582        1.25643
  H        1.72132       -0.93166        0.00000
  H       -1.46672        1.59028       -0.00000
  H        0.03093        1.96025       -0.88622
  H        0.03093        1.96025        0.88622
  H       -1.60216       -0.66890       -1.31104
  H       -0.19842       -1.74665       -1.26649
  H       -0.09914       -0.20696       -2.14351
  H       -1.60216       -0.66890        1.31104
  H       -0.19842       -1.74665        1.26649
  H       -0.09914       -0.20696        2.14351
