14
neutralIP: C6H5-NH2 (Aniline, Cs) mp2(full)/6-31G* geom Optimized Energy = -286.683433. (HF = -285.729179).
C           -.006731     .934766     .000000
C            .006654     .221924    1.205747
C            .006654     .221924   -1.205747
C            .006654   -1.170616    1.202473
C            .006654   -1.170616   -1.202473
C            .010503   -1.877232     .000000
N            .064161    2.337919     .000000
H           -.340044    2.758633    -.830402
H           -.340044    2.758633     .830402
H            .010543   -1.705214    2.149344
H            .010543   -1.705214   -2.149344
H            .009977   -2.963545     .000000
H            .008788     .765189    2.149139
H            .008788     .765189   -2.149139
