10
C4H6 isomer. CH3-CH=C=CH2. C1 symmetry. MP2(full)/6-31G(d),  Geom. Optimized Energy = -155.422900 (HF = -154.898272).
H  0.6179631996 1.9727540787 -1.4663006569
C  0.3782238122 1.6817771094 -0.4387375078
H  1.312300936 1.4931473833 0.0940270557
C  -0.5019006628 0.4616909415 -0.4204015294
H  -0.1249207517 2.53118706 0.0338901848
C  -0.1793490304 -0.6703172602 0.160709911
H  -1.4654393299 0.5340361223 -0.9244707459
C  0.1493184907 -1.7989702092 0.743598256
H  0.6808824308 -2.5810782044 0.2088882665
H  -0.0985421431 -1.9951299285 1.7829511162
