13
tetrahydrofuran C4H8O C2 symmetry mp2(full)/6-31g* = -231.6922864
  O        0.00000        0.00000        0.00000
  C        0.00000        0.83105       -1.17045
  C        0.00000        0.83105        1.17045
  C        0.32690        2.23931       -0.68933
  C       -0.32690        2.23931        0.68933
  H        0.73023        0.42834       -1.87883
  H       -0.99258        0.79679       -1.64025
  H       -0.73023        0.42834        1.87883
  H        0.99258        0.79679        1.64025
  H        1.40978        2.36811       -0.59371
  H       -0.05486        3.01547       -1.35792
  H       -1.40978        2.36811        0.59371
  H        0.05486        3.01547        1.35792
