14
cyclopentanone C5H8O C2 symmetry mp2(full)/6-31g* = -269.7101119
  C        0.00000        0.00000        0.00000
  O        0.00000       -1.22161       -0.00000
  C        0.00000        0.89030        1.23813
  C        0.00000        0.89030       -1.23813
  C        0.31523        2.28616       -0.70101
  C       -0.31523        2.28616        0.70101
  H        1.00795        0.85495        1.67230
  H       -1.00795        0.85495       -1.67230
  H       -0.69183        0.50606        1.99219
  H        0.69183        0.50606       -1.99219
  H        1.39987        2.41947       -0.61665
  H       -1.39987        2.41947        0.61665
  H       -0.06523        3.08979       -1.33711
  H        0.06523        3.08979        1.33711
