12
benzoquinone C6H4O2 mp2(full)/6-31g* = -380.3612844
  C        0.00000        0.00000        0.00000
  C        2.87962        0.00000        0.00000
  O       -1.23647        0.00000        0.00000
  O        4.11609        0.00000       -0.00000
  C        0.76599        0.00000       -1.26491
  C        0.76599        0.00000        1.26491
  C        2.11363        0.00000        1.26491
  C        2.11363        0.00000       -1.26491
  H        0.18172        0.00000       -2.18118
  H        0.18172        0.00000        2.18118
  H        2.69790        0.00000        2.18118
  H        2.69790        0.00000       -2.18118
