10
pyrimidine C4H4N2 mp2(full)/6-31g* = -263.5362862
  C        0.00000        0.00000        0.00000
  C        0.00000       -2.66510       -0.00000
  N        0.00000       -0.59463       -1.20191
  N        0.00000       -0.59463        1.20191
  C        0.00000       -1.93708       -1.18536
  C        0.00000       -1.93708        1.18536
  H        0.00000        1.08748        0.00000
  H        0.00000       -3.75023       -0.00000
  H        0.00000       -2.43109       -2.15495
  H        0.00000       -2.43109        2.15495
