10
C4H4N2. 1,4-dipyridine. D2h symmetry. MP2(full)/6-31G(d) Geom. Optimized Energy = -263.530423 (HF = -262.679620).
H  -2.0673377942 0. -1.2573828129
N  0. 0. 1.4153731976
N  0. 0. -1.4153731976
C  -1.1347904706 0. 0.6972126932
C  1.1347904706 0. 0.6972126932
C  1.1347904706 0. -0.6972126932
C  -1.1347904706 0. -0.6972126932
H  -2.0673377942 0. 1.2573828129
H  2.0673377942 0. 1.2573828129
H  2.0673377942 0. -1.2573828129
