13
C5H8 isoprene H2C=CHC(CH3)=CH2 mp2(full)/6-31g* = -194.6176205
  C        0.00000        0.00000        0.00000
  C        1.34564        0.00000        0.00000
  C        2.07097        1.27244        0.00000
  C        3.40707        1.40534       -0.00004
  C        2.13401       -1.27961       -0.00000
  H       -0.56707        0.92644       -0.00000
  H       -0.57207       -0.92255        0.00000
  H        1.45483        2.17148        0.00003
  H        3.87201        2.38528       -0.00004
  H        4.07631        0.55164       -0.00007
  H        2.77968       -1.34236        0.88176
  H        1.46815       -2.14544        0.00004
  H        2.77959       -1.34241       -0.88183
