9
CH3-C(=O)-C==CH. Cs symmetry. MP2(full)/6-31G(d) Geom. Optimized Energy = -229.287721 (HF = -228.583778).
H  1.6096611954 -0.8819409068 1.1316041459
C  0.9947710279 0. 1.3369958081
H  0.6734562497 0. 2.3794921321
C  -0.2175566258 0. 0.4444863301
H  1.6096611954 0.8819409068 1.1316041459
O  -1.3685072602 0. 0.8729343727
C  0.0482045008 0. -0.9895202201
C  0.2738691253 0. -2.1895095365
H  0.4595512717 0. -3.2408896954
