11
CH3-CH=CH-CHO. Cs symmetry. MP2(full)/6-31G(d) Geom. Optimized Energy = -230.506139. (HF = -229.800715).
H  0.1198249335 -0.8798231072 2.9847525549
C  -0.2088795415 0. 2.421946669
H  -1.3004864413 0. 2.3853040014
C  0.3800849025 0. 1.0503626212
H  0.1198249335 0.8798231072 2.9847525549
C  -0.3217844961 0. -0.0950915364
H  1.4698191237 0. 0.9869701747
H  -1.4094734198 0. -0.1066121544
C  0.3609723933 0. -1.3926888146
O  -0.2165904923 0. -2.475245606
H  1.4708552593 0. -1.3403759185
