13
Acetic anhydride. CH3-C(=O)-O-C(=O)-CH3. C2v -> C2 symmetry. MP2(full)/6-31G(d) Geom. Optimized Energy = -380.646344 (HF = -379.576859).
O  0. 0. 0.6197448335
C  -0.0038653134 1.2083864137 -0.0874773955
O  0.4534880285 1.3342892088 -1.1968152286
C  -0.5982065988 2.2809079542 0.7748078554
C  0.0038653134 -1.2083864137 -0.0874773955
O  -0.4534880285 -1.3342892088 -1.1968152286
C  0.5982065988 -2.2809079542 0.7748078554
H  0.5098457331 -3.2407632282 0.268220594
H  0.0848622178 -2.3109926025 1.7381485834
H  1.6495326343 -2.0521385912 0.9651905584
H  -0.5098457331 3.2407632282 0.268220594
H  -0.0848622178 2.3109926025 1.7381485834
H  -1.6495326343 2.0521385912 0.9651905584
