12
(CH3)2CH-CN. Cs symmetry. MP2(full)/6-31G(d) Geom. Optimized Energy = -210.694646. (HF = -209.992444).
H -0.263475424 2.1668162569 0.5515715052
C 0.1447847697 1.2684352761 1.0198544837
H 1.233934666 1.2987326578 0.9339058437
C -0.406065477 0. 0.3629450768
H -0.1197101032 1.2775758541 2.0806611751
C -0.1026912186 0. -1.0731734613
H -1.4988137071 0. 0.4580711743
C 0.1447847697 -1.2684352761 1.0198544837
H 1.233934666 -1.2987326578 0.9339058437
H -0.263475424 -2.1668162569 0.5515715052
H -0.1197101032 -1.2775758541 2.0806611751
N 0.1589197667 0. -2.2238902458
