13
CH3-CO-CH2-CH3. Methyl ethyl ketone. Cs symmetry. MP2(full)/6-31G(d) Geom. Optimized Energy = -231.712656. (HF = -230.995542).
H  -0.6936479882 -0.8797163451 2.0613900382
C  -0.0502242014 0. 2.0020373904
H  -0.6936479882 0.8797163451 2.0613900382
C  0.7403110857 0. 0.704157698
H  0.6218199661 0. 2.8638781243
C  -0.1423540259 0. -0.5284447839
H  1.4043140083 -0.8726866311 0.6435904683
H  -0.1781637232 0. -2.6672323916
H  1.2046458169 -0.881342238 -1.9580913598
H  1.2046458169 0.881342238 -1.9580913598
H  1.4043140083 0.8726866311 0.6435904683
O  -1.3665064549 0. -0.4447102099
C  0.5618957621 0. -1.8665406957
