14
t-Butyl chloride. (CH3)3C-Cl. C3v symmetry. MP2(full)/6-31G(d) Geom. Optimized Energy = -616.896759 (HF = -616.205228).
Cl 0. 0. 1.4671064415
C  0. 0. -0.3467921843
C  0. 1.4494279131 -0.8059895623
C  1.2552413937 -0.7247139565 -0.8059895623
C  -1.2552413937 -0.7247139565 -0.8059895623
H  0. 1.4832672629 -1.9000373566
H  1.2845471303 -0.7416336315 -1.9000373566
H  -1.2845471303 -0.7416336315 -1.9000373566
H  0.8864771935 1.9731781811 -0.4420220346
H  -0.8864771935 1.9731781811 -0.4420220346
H  1.2655838343 -1.75430086 -0.4420220346
H  2.1520610278 -0.2188773211 -0.4420220346
H  -2.1520610278 -0.2188773211 -0.4420220346
H  -1.2655838343 -1.75430086 -0.4420220346
