15
cyclopentane twist c5h10 C2 symmetry. Note: NImag=1 but has same hf/6-31g* energy and structure as nosym species (zpe=0.134563,Etherm=0.139933) mp2(full)/6-31g* = -195.8401008
  C        0.00000        2.31979        0.00000
  C        0.00000        0.00000       -0.76344
  C        0.00000        0.00000        0.76344
  C        0.55327        1.38721       -1.10339
  C       -0.55327        1.38721        1.10339
  H        0.78618        2.97351        0.38896
  H       -0.78618        2.97351       -0.38896
  H        0.58543       -0.81385       -1.20257
  H       -0.58543       -0.81385        1.20257
  H       -1.02936       -0.09793       -1.12934
  H        1.02936       -0.09793        1.12934
  H        1.64741        1.35925       -1.05784
  H       -1.64741        1.35925        1.05784
  H        0.28385        1.71894       -2.11049
  H       -0.28385        1.71894        2.11049
