14
n-Butyl chloride. CH3-CH2-CH2-CH2-Cl. Cs symmetry. MP2(full)/6-31G(d) Geom. Optimized Energy = -616.884993. (HF = -616.200676).
H  -1.1252867068 0.8772323533 2.9615585352
C  -0.4852216163 0. 2.9696875384
H  0.0659733699 0. 3.9044521979
C  0.4644293543 0. 1.7723856059
H  -1.1252867068 -0.8772323533 2.9615585352
H  1.1134841854 0.8711055925 1.8271446938
C  -0.2808062808 0. 0.4345984617
H  1.1134841854 -0.8711055925 1.8271446938
H  -0.923666129 0.8722877492 0.3682215796
H  -0.923666129 -0.8722877492 0.3682215796
C  0.6843814713 0. -0.7401314121
H  1.3124037589 0.8781939144 -0.7404704479
Cl -0.1833259505 0. -2.3150942401
H  1.3124037589 -0.8781939144 -0.7404704479
