16
CH3-CH2-CH(CH3)-NO2. Nitro-s-butane. C1 symm. MP2(full)/6-31G(d) Geom. Optimized Energy = -361.869668 (HF = -360.765561).
H  0.6629810515 -1.5825217332 -1.6825604529
C  0.2421284307 -0.6388738251 -1.3171156674
C  0.9990703728 0.5425557497 -1.9126901753
C  0.2956764951 -0.6833797336 0.2041620694
H  -0.8094120424 -0.6145100786 -1.6211179771
H  1.3306341527 -0.7003772742 0.5545208537
C  -0.5129769262 -1.8180783037 0.8059065856
N  -0.2386672334 0.618681102 0.7181353594
H  -0.1030935404 -2.7729524583 0.4671050814
H  -1.5544177038 -1.7453299385 0.4883589626
H  -0.4725522927 -1.7941872964 1.8979300649
H  0.9896549358 0.4919776691 -3.0041979469
H  2.0417144924 0.5507186027 -1.5826244765
H  0.5441105458 1.4922411374 -1.6204512419
O  0.5521640219 1.3865474499 1.2916877937
O  -1.4399564219 0.8548063416 0.5076262991
