15
CH3-CH2-O-CH2-CH3. Diethyl ether. C2v symmetry. MP2(full)/6-31G(d) Geom. Optimized Energy = -232.867426. (HF = -232.143258).
H  3.300677718 0. -0.1509052381
C  2.363802006 0. 0.412948653
H  2.3379326774 -0.8858107593 1.0505532281
C  1.1770812055 0. -0.524555379
H  2.3379326774 0.8858107593 1.0505532281
H  1.1935269835 -0.8868411782 -1.1773896175
H  1.1935269835 0.8868411782 -1.1773896175
O  0. 0. 0.2685545932
C  -1.1770812055 0. -0.524555379
C  -2.363802006 0. 0.412948653
H  -1.1935269835 -0.8868411782 -1.1773896175
H  -1.1935269835 0.8868411782 -1.1773896175
H  -3.300677718 0. -0.1509052381
H  -2.3379326774 0.8858107593 1.0505532281
H  -2.3379326774 -0.8858107593 1.0505532281
