16
CH3-CH(OCH3)2. C1 symmetry. More stable conformer. MP2(full)/6-31G(d) Geom. Optimized Energy = -307.896267 (HF = -306.990943)
H  1.0244006612 -1.8181228312 -0.6161624243
C  1.1117821558 -1.4543956087 0.4087895345
C  0.3566059657 -0.1541209161 0.5754760979
H  0.5221152864 0.2729900225 1.5750296388
H  0.7168773691 -2.2054129468 1.0964686045
H  2.169971238 -1.2921149256 0.6221560522
O  -1.0508540408 -0.2930035053 0.5172045683
O  0.8457061497 0.7271026748 -0.4096176682
C  -1.5312616156 -0.8677982801 -0.6964647424
C  0.3302638239 2.0468222715 -0.2607553741
H  -2.602270886 -0.6650750852 -0.7203637593
H  0.8312340441 2.6575044409 -1.0118495627
H  -1.3750005323 -1.9516132751 -0.7211653063
H  -1.0525352733 -0.4115091399 -1.5674475551
H  0.5531859003 2.441843307 0.7385769738
H  -0.7511366576 2.0756722778 -0.4182109574
