16
CH3-CH2-S-S-CH2-CH3. Diethyl disulfide. C2h -> C2 symmetry. MP2(full)/6-31G(d) Geom. Optimized Energy = -953.129781 (HF = -952.318181).
H  0.0690392603 3.79932316 1.4581846088
H  -1.4694104852 3.0961254387 0.9379102993
H  -0.3406010879 3.7458405171 -0.2629130346
C  -0.4124542761 3.2000663718 0.6808864595
H  1.3236877372 1.9500617928 0.3266484146
H  0.1956729325 1.3055727818 1.531108876
C  0.2669964147 1.8414422798 0.5809556555
S  -0.5497883761 0.8672850582 -0.7226244909
S  0.5497883761 -0.8672850582 -0.7226244909
C  -0.2669964147 -1.8414422798 0.5809556555
C  0.4124542761 -3.2000663718 0.6808864595
H  -1.3236877372 -1.9500617928 0.3266484146
H  -0.1956729325 -1.3055727818 1.531108876
H  -0.0690392603 -3.79932316 1.4581846088
H  1.4694104852 -3.0961254387 0.9379102993
H  0.3406010879 -3.7458405171 -0.2629130346
