16
(CH3)3C-NH2. t-butylamine. Cs symmetry. MP2(full)/6-31G(d) Geom. Optimized Energy = -213.040835. (HF = -212.320567).
C  0.2017767909 -0.1463244414 1.5027669368
C  -0.0006364165 0.0140007339 0.000576987
C  -1.4758567579 -0.1463244414 -0.3476624367
C  0.8306711547 -1.0269875754 -0.7531018569
N  0.3783703262 1.3937816278 -0.343037547
H  0.5371661666 -2.0479704427 -0.4870047975
H  1.8948371349 -0.9092678273 -0.5208321748
H  0.7035041417 -0.9092678273 -1.8348721603
H  -2.0680121483 0.604979737 0.180377864
H  -1.836099412 -1.1423570516 -0.0734213595
H  -1.6358794914 -0.0144414157 -1.4236849458
H  -0.1063548854 -1.1423570516 1.8344864091
H  -0.3816020612 0.604979737 2.0404877569
H  1.2570118038 -0.0144414157 1.7671734098
H  1.3721797273 1.5237432544 -0.1455343518
H  0.2789281125 1.5237432544 -1.3513906022
