17
Tetramethylsilane. Si(CH3)4. Td symmetry. MP2(full)/6-31G(d) Geom. Optimized Energy = -448.054883 (HF = -447.413063).
  C        0.00000        0.00000        0.00000
 Si        1.88518        0.00000        0.00000
  C        2.51358        1.77737        0.00000
  C        2.51358       -0.88868        1.53925
  C        2.51358       -0.88868       -1.53925
  H       -0.39756       -1.01930       -0.00000
  H       -0.39756        0.50965       -0.88274
  H       -0.39756        0.50965        0.88274
  H        3.60710        1.81243        0.00000
  H        2.16560        2.32207        0.88274
  H        2.16560        2.32207       -0.88274
  H        3.60710       -0.90621        1.56961
  H        2.16560       -1.92551        1.56961
  H        2.16560       -0.39657        2.45234
  H        3.60710       -0.90621       -1.56961
  H        2.16560       -0.39657       -2.45234
  H        2.16560       -1.92551       -1.56961
