17
n-pentane c5h12 mp2(full)/6-31g* = -197.0155322
  C        0.00000        0.00000        0.00000
  C       -0.83765        1.27445       -0.00000
  C       -0.83765       -1.27445       -0.00000
  C        0.01219        2.54046        0.00000
  C        0.01219       -2.54046       -0.00000
  H        0.65935        0.00000        0.87839
  H        0.65935        0.00000       -0.87839
  H       -1.49562        1.27243        0.87768
  H       -1.49562        1.27243       -0.87768
  H       -1.49562       -1.27243       -0.87768
  H       -1.49562       -1.27243        0.87768
  H        0.65634        2.57693       -0.88364
  H        0.65634        2.57693        0.88364
  H        0.65634       -2.57693        0.88364
  H        0.65634       -2.57693       -0.88364
  H       -0.60874        3.44073        0.00000
  H       -0.60874       -3.44073       -0.00000
