16
Tetrahydropyran. C5H10O. Cs symmetry. MP2(full)/6-31G(d) Geom. Optimized Energy = -270.871330 (HF = -270.0160945).
O  -0.0277851253 -0.0539484978 -1.4244205707
C  0.0284397797 -0.0149447746 1.4579818088
C  1.1592279994 0.3363693521 -0.7394709037
C  -1.1871838338 0.3363693521 -0.6937011724
C  1.26222684 -0.3409293104 0.6188100678
C  -1.2371345006 -0.3409293104 0.6675632727
H  1.1746654929 1.4324960643 -0.616520201
H  1.9873550714 0.0553797895 -1.395374559
H  -1.1978147904 1.4324960643 -0.5702419716
H  -2.0402596787 0.0553797895 -1.316810838
H  1.3290782862 -1.4236254266 0.4623972716
H  2.1809958925 -0.0231636756 1.1264225347
H  -1.310034831 -1.4236254266 0.5138765117
H  -2.1354089316 -0.0231636756 1.2106194715
H  0.046958425 -0.5610532356 2.4073509075
H  0.0332883582 1.0548558628 1.706547

