16
CH3-CH2-CO-CH2-CH3. Diethyl ketone. C2v symmetry. MP2(full)/6-31G(d) Geom. Optimized Energy = -270.884266 (HF = -270.031000).
H  0. -3.4375560641 -0.4706801361
C  0. -2.5316010273 0.1404791487
H  -0.8798092402 -2.5467398081 0.7860861017
C  0. -1.2916648099 -0.7391053118
H  0.8798092402 -2.5467398081 0.7860861017
H  -0.8728337181 -1.2789986864 -1.4050959499
H  0.8728337181 -1.2789986864 -1.4050959499
C  0. 0. 0.0555657488
O  0. 0. 1.2834398911
C  0. 1.2916648099 -0.7391053118
C  0. 2.5316010273 0.1404791487
H  -0.8728337181 1.2789986864 -1.4050959499
H  0.8728337181 1.2789986864 -1.4050959499
H  0.8798092402 2.5467398081 0.7860861017
H  -0.8798092402 2.5467398081 0.7860861017
H  0. 3.4375560641 -0.4706801361
