17
Perhydropyridine. cyc-C5H10NH. Cs symmetry. MP2(full)/6-31G(d) Geom. Optimized Energy = -251.029924 (HF = -250.186143).
H  -1.3062565269 2.0785921897 -0.1396392309
C  -0.7514782103 1.2084047142 0.227908722
C  -0.7514782103 -1.2084047142 0.227908722
C  1.4484245615 0. 0.2249914623
C  0.7064043512 -1.2552630773 -0.2305589833
C  0.7064043512 1.2552630773 -0.2305589833
N  -1.4677812182 0. -0.1862866543
H  -0.7889708836 -1.2462887447 1.3246384734
H  1.5138856375 0. 1.3214957708
H  0.7343624185 -1.3185583045 -1.3269979375
H  0.7343624185 1.3185583045 -1.3269979375
H  -1.5387645721 0. -1.2055200258
H  -0.7889708836 1.2462887447 1.3246384734
H  -1.3062565269 -2.0785921897 -0.1396392309
H  2.4776097423 0. -0.1516478171
H  1.1969033217 -2.1586501689 0.152765202
H  1.1969033217 2.1586501689 0.152765202
