18
(CH3)3C-O-CH3. t-butyl methyl ether. Cs symmetry. MP2(full)/6-31G(d) Geom. Optimized Energy = -272.041919 (HF = -271.173792).
H  -0.5353667213 0. -2.4975673833
H  -1.6560389037 0.8861406989 -1.4364046149
H  -1.6560389037 -0.8861406989 -1.4364046149
H  0.2425798787 2.1437532933 -0.3406427772
H  1.6525173305 1.2642732224 0.2874139582
H  1.3592915368 1.3220047259 -1.4514200451
O  -0.8034932089 0. 0.7875561613
C  0.0097777652 0. -0.4005245649
C  0.8694614233 1.2579522068 -0.4753501064
C  -1.0217090833 0. -1.5179690673
C  0.8694614233 -1.2579522068 -0.4753501064
H  1.6525173305 -1.2642732224 0.2874139582
H  1.3592915368 -1.3220047259 -1.4514200451
H  0.2425798787 -2.1437532933 -0.3406427772
C  -0.1181143621 0. 2.0284109042
H  -0.8963467202 0. 2.7930696871
H  0.5048482144 0.8915082949 2.1654265038
H  0.5048482144 -0.8915082949 2.1654265038
