12
1,4-DiFluorobenzene. C6H4F2. D2h symmetry. MP2(full)/6-31G(d) Geom. Optimized Energy = -429.528950 (HF = -428.401553).
C  0. 0. 1.3676387645
C  1.2161643232 0. 0.6969809803
C  1.2161643232 0. -0.6969809803
C  0. 0. -1.3676387645
C  -1.2161643232 0. -0.6969809803
C  -1.2161643232 0. 0.6969809803
F  0. 0. 2.723276366
F  0. 0. -2.723276366
H  2.1419959204 0. 1.2630416399
H  2.1419959204 0. -1.2630416399
H  -2.1419959204 0. -1.2630416399
H  -2.1419959204 0. 1.2630416399
