12
Fluorobenzene. C2v symmetry. MP2(full)/6-31G(d) Geom. Optimized Energy = -330.509129 (HF = -329.553023).
F  0. 0. 2.2845305826
C  0. 0. 0.9276135113
C  0. 1.2166474683 0.2594593858
C  0. -1.2166474683 0.2594593858
C  0. 1.2078720117 -1.1351815817
C  0. -1.2078720117 -1.1351815817
C  0. 0. -1.8341157541
H  0. 2.140804006 0.8287702949
H  0. -2.140804006 0.8287702949
H  0. 2.150938182 -1.6751205513
H  0. -2.150938182 -1.6751205513
H  0. 0. -2.920394923
