17
Neopentane. C(CH3)4. Td symmetry. MP2(full)/6-31G(d) Geom. Optimized Energy = -197.023254 (HF = -196.333108).
  C        0.00000        0.00000        0.00000
  C        1.52830        0.00000        0.00000
  C       -0.50943        1.44090        0.00000
  C       -0.50943       -0.72045       -1.24785
  C       -0.50943       -0.72045        1.24785
  H        1.91958       -1.02245        0.00000
  H        1.91958        0.51122       -0.88547
  H        1.91958        0.51122        0.88547
  H       -1.60383        1.46898       -0.00000
  H       -0.15787        1.98021        0.88547
  H       -0.15787        1.98021       -0.88547
  H       -1.60383       -0.73449       -1.27218
  H       -0.15787       -0.22327       -2.15764
  H       -0.15787       -1.75694       -1.27218
  H       -1.60383       -0.73449        1.27218
  H       -0.15787       -1.75694        1.27218
  H       -0.15787       -0.22327        2.15764
