21
(CH3)2CH-O-CH(CH3)2. Di-isopropyl ether. C2 symmetry. MP2(full)/6-31G(d) Geom. Optimized Energy = -311.219175 (HF = -310.216807).
O  0. 0. 0.5356138033
C  1.194437235 -0.1492415702 -0.2401640156
C  -1.194437235 0.1492415702 -0.2401640156
C  2.1549720851 -0.9567078349 0.6104157838
C  -2.1549720851 0.9567078349 0.6104157838
C  1.7524833531 1.2182176141 -0.6036962947
C  -1.7524833531 -1.2182176141 -0.6036962947
H  0.9676469258 -0.7093689498 -1.1597202205
H  -0.9676469258 0.7093689498 -1.1597202205
H  1.0297557593 1.7980134905 -1.1840616423
H  -1.0297557593 -1.7980134905 -1.1840616423
H  2.667386879 1.1240136985 -1.1970147459
H  -2.667386879 -1.1240136985 -1.1970147459
H  1.9809089817 1.7704790127 0.3116823257
H  -1.9809089817 -1.7704790127 0.3116823257
H  1.7240911865 -1.9326771916 0.84408459
H  -1.7240911865 1.9326771916 0.84408459
H  2.3423713155 -0.4289801127 1.5493236978
H  -2.3423713155 0.4289801127 1.5493236978
H  3.1080962183 -1.1026747318 0.0939179409
H  -3.1080962183 1.1026747318 0.0939179409
