7
sf6 octahedral symmetry mp2(full)/6-31g* = -995.2265262
  S        0.00000        0.00000        0.00000
  F        1.59247        0.00000        0.00000
  F        0.00000        1.59247        0.00000
  F       -1.59247        0.00000        0.00000
  F        0.00000        0.00000        1.59247
  F        0.00000        0.00000       -1.59247
  F        0.00000       -1.59247       -0.00000
