6
PCl5 D3h symmetry mp2(full)/6-31g* = -2638.9629442
  P        0.00000        0.00000        0.00000
 Cl        2.13885        0.00000        0.00000
 Cl        0.00000        2.03782        0.00000
 Cl       -2.13885        0.00000        0.00000
 Cl        0.00000       -1.01891       -1.76480
 Cl        0.00000       -1.01891        1.76480
