5
Cl2O2S C2v symmetry mp2(full)/6-31g* = -1466.8900683
  S        0.00000        0.00000        0.00000
  O        0.00000        0.67789       -1.27673
  O        0.00000        0.67789        1.27673
 Cl        1.57193       -1.30834       -0.00000
 Cl       -1.57193       -1.30834       -0.00000
