8
c2f6 mp2(full)/6-31g* = -673.6773161
  C        0.00000        0.00000        0.00000
  C        1.52786        0.00000        0.00000
  F       -0.45098        1.26026        0.00000
  F       -0.45098       -0.63013       -1.09142
  F       -0.45098       -0.63013        1.09142
  F        1.97884       -1.26026        0.00000
  F        1.97884        0.63013       -1.09142
  F        1.97884        0.63013        1.09142
