11
C6H5 phenyl radical C2v symmetry mp2(full)/6-31g* = -230.7777459
  C        0.00000        0.00000        0.00000
  C        0.00000        2.67299        0.00000
  C        0.00000        0.61806       -1.20527
  C        0.00000        0.61806        1.20527
  C       -0.00000        1.99086       -1.18864
  C       -0.00000        1.99086        1.18864
  H        0.00000        3.75872        0.00000
  H        0.00000        0.06404       -2.13856
  H        0.00000        0.06404        2.13856
  H        0.00000        2.53804       -2.12812
  H       -0.00000        2.53804        2.12812
