14
para-cyclohexadiene. C6H8. D2h symmetry. MP2(full)/6-31G(d) Geom. Optimized Energy = -232.620867 (HF = -231.831931).
H  0. 0.871293467 -2.172430416
C  0. 0. -1.5003313239
C  1.2485216985 0. 0.6693301074
C  -1.2485216985 0. 0.6693301074
C  0. 0. 1.5003313239
C  -1.2485216985 0. -0.6693301074
C  1.2485216985 0. -0.6693301074
H  2.1974172406 0. 1.2030702332
H  2.1974172406 0. -1.2030702332
H  0. 0.871293467 2.172430416
H  -2.1974172406 0. -1.2030702332
H  -2.1974172406 0. 1.2030702332
H  0. -0.871293467 -2.172430416
H  0. -0.871293467 2.172430416
