20
n-hexane c6h14 mp2(full)/6-31g* = -236.1861154
  C        0.00000        0.76257        0.00000
  C        0.00000       -0.76257       -0.00000
  C        0.00000        1.36632        1.40071
  C        0.00000       -1.36632       -1.40071
  C        0.00000        2.89102        1.38723
  C        0.00000       -2.89102       -1.38723
  H        0.87844        1.12561       -0.55021
  H       -0.87844        1.12561       -0.55021
  H        0.87844       -1.12561        0.55021
  H       -0.87844       -1.12561        0.55021
  H        0.87764        1.00267        1.94911
  H       -0.87764        1.00267        1.94911
  H        0.87764       -1.00267       -1.94911
  H       -0.87764       -1.00267       -1.94911
  H       -0.88364        3.27586        0.86937
  H        0.88364        3.27586        0.86937
  H       -0.88364       -3.27586       -0.86937
  H        0.88364       -3.27586       -0.86937
  H        0.00000        3.30138        2.40101
  H        0.00000       -3.30138       -2.40101
