  16
  -491.535745349717     
 C    -0.01738113     0.06350146    -1.38134011
 C    -1.18811216    -0.26823199    -0.67591716
 C     1.15344001     0.35910782    -0.66015004
 H    -2.09223609    -0.50093885    -1.22131296
 H     2.05921226     0.61243108    -1.19351999
 C    -1.19177384    -0.30062114     0.70772365
 C     1.15536235     0.32801174     0.72349602
 H    -2.08445301    -0.55041103     1.25820838
 H     2.04617502     0.55641813     1.28617746
 C    -0.01817792    -0.00360732     1.39614647
 N    -0.02186157    -0.02660644     2.84512764
 O     1.03602390     0.24531493     3.43684895
 O    -1.08228373    -0.31878541     3.42251912
 N    -0.00281799     0.04401974    -2.75392899
 H     0.74209929     0.54003486    -3.21409773
 H    -0.88990564     0.10369822    -3.22527955
